<?xml version="1.0" encoding="UTF-8"?>

<!-- generated on 2021-09-14 11:39:07 by Eclipse SUMO netgenerate Version 1.9.2
<configuration xmlns:xsi="http://www.w3.org/2001/XMLSchema-instance" xsi:noNamespaceSchemaLocation="http://sumo.dlr.de/xsd/netgenerateConfiguration.xsd">

    <random_network>
        <rand value="true"/>
        <rand.iterations value="50"/>
    </random_network>

    <output>
        <output-file value="../network.net.xml"/>
    </output>

</configuration>
-->

<net version="1.9" junctionCornerDetail="5" limitTurnSpeed="5.50" xmlns:xsi="http://www.w3.org/2001/XMLSchema-instance" xsi:noNamespaceSchemaLocation="http://sumo.dlr.de/xsd/net_file.xsd">

    <location netOffset="688.86,738.74" convBoundary="0.00,0.00,1586.53,1492.29" origBoundary="-688.86,-738.74,897.66,753.55" projParameter="!"/>

    <edge id=":1_0" function="internal">
        <lane id=":1_0_0" index="0" speed="5.98" length="9.08" shape="687.39,747.04 686.98,744.47 685.86,742.89 684.01,742.31 681.44,742.72"/>
    </edge>
    <edge id=":1_1" function="internal">
        <lane id=":1_1_0" index="0" speed="13.89" length="14.86" shape="687.39,747.04 687.26,743.31 686.94,739.62 686.42,735.96 685.67,732.31"/>
    </edge>
    <edge id=":1_2" function="internal">
        <lane id=":1_2_0" index="0" speed="8.09" length="6.00" shape="687.39,747.04 687.89,742.70 688.67,741.26"/>
    </edge>
    <edge id=":1_3" function="internal">
        <lane id=":1_3_0" index="0" speed="3.65" length="2.34" shape="687.39,747.04 688.17,745.83 688.97,745.41"/>
    </edge>
    <edge id=":1_16" function="internal">
        <lane id=":1_16_0" index="0" speed="8.09" length="9.12" shape="688.67,741.26 689.54,739.65 692.34,737.89 696.29,737.42"/>
    </edge>
    <edge id=":1_17" function="internal">
        <lane id=":1_17_0" index="0" speed="3.65" length="2.34" shape="688.97,745.41 689.77,745.80 690.59,746.99"/>
    </edge>
    <edge id=":1_4" function="internal">
        <lane id=":1_4_0" index="0" speed="6.62" length="9.76" shape="696.17,740.62 693.69,740.94 691.94,742.10 690.90,744.12 690.59,746.99"/>
    </edge>
    <edge id=":1_5" function="internal">
        <lane id=":1_5_0" index="0" speed="13.89" length="14.95" shape="696.17,740.62 692.43,740.66 688.72,741.04 685.05,741.74 681.44,742.72"/>
    </edge>
    <edge id=":1_6" function="internal">
        <lane id=":1_6_0" index="0" speed="9.03" length="14.51" shape="696.17,740.62 692.30,739.98 689.26,738.38 687.05,735.82 685.67,732.31"/>
    </edge>
    <edge id=":1_7" function="internal">
        <lane id=":1_7_0" index="0" speed="3.65" length="4.67" shape="696.17,740.62 695.00,739.77 694.64,738.96 695.07,738.18 696.29,737.42"/>
    </edge>
    <edge id=":1_8" function="internal">
        <lane id=":1_8_0" index="0" speed="7.70" length="10.32" shape="688.78,731.56 689.76,734.04 691.34,735.84 693.52,736.97 696.29,737.42"/>
    </edge>
    <edge id=":1_9" function="internal">
        <lane id=":1_9_0" index="0" speed="13.89" length="15.56" shape="688.78,731.56 689.55,735.32 690.10,739.22 690.44,743.15 690.59,746.99"/>
    </edge>
    <edge id=":1_10" function="internal">
        <lane id=":1_10_0" index="0" speed="8.41" length="6.16" shape="688.78,731.56 689.07,735.36 688.27,737.58"/>
    </edge>
    <edge id=":1_11" function="internal">
        <lane id=":1_11_0" index="0" speed="3.65" length="2.34" shape="688.78,731.56 688.29,732.92 687.60,733.49"/>
    </edge>
    <edge id=":1_18" function="internal">
        <lane id=":1_18_0" index="0" speed="8.41" length="8.84" shape="688.27,737.58 687.94,738.48 685.40,740.94 681.44,742.72"/>
    </edge>
    <edge id=":1_19" function="internal">
        <lane id=":1_19_0" index="0" speed="3.65" length="2.34" shape="687.60,733.49 686.73,733.29 685.67,732.31"/>
    </edge>
    <edge id=":1_12" function="internal">
        <lane id=":1_12_0" index="0" speed="7.00" length="10.09" shape="680.49,739.66 683.24,738.45 685.02,736.82 685.83,734.77 685.67,732.31"/>
    </edge>
    <edge id=":1_13" function="internal">
        <lane id=":1_13_0" index="0" speed="13.89" length="16.03" shape="680.49,739.66 684.27,738.66 688.31,737.92 692.39,737.48 696.29,737.42"/>
    </edge>
    <edge id=":1_14" function="internal">
        <lane id=":1_14_0" index="0" speed="7.59" length="15.41" shape="680.49,739.66 684.85,738.97 687.98,739.95 689.90,742.63 690.59,746.99"/>
    </edge>
    <edge id=":1_15" function="internal">
        <lane id=":1_15_0" index="0" speed="3.65" length="4.67" shape="680.49,739.66 681.87,740.07 682.49,740.72 682.34,741.60 681.44,742.72"/>
    </edge>
    <edge id=":10_0" function="internal">
        <lane id=":10_0_0" index="0" speed="3.65" length="4.67" shape="527.05,790.63 525.66,790.22 525.04,789.58 525.19,788.69 526.10,787.57"/>
    </edge>
    <edge id=":115_0" function="internal">
        <lane id=":115_0_0" index="0" speed="5.67" length="9.24" shape="860.97,431.48 859.42,429.19 857.77,428.35 856.04,428.98 854.21,431.06"/>
    </edge>
    <edge id=":115_1" function="internal">
        <lane id=":115_1_0" index="0" speed="11.86" length="15.57" shape="860.97,431.48 858.78,427.95 856.11,425.18 852.97,423.18 849.34,421.94"/>
    </edge>
    <edge id=":115_2" function="internal">
        <lane id=":115_2_0" index="0" speed="3.65" length="2.17" shape="860.97,431.48 861.15,430.05 861.59,429.47"/>
    </edge>
    <edge id=":115_9" function="internal">
        <lane id=":115_9_0" index="0" speed="3.65" length="2.51" shape="861.59,429.47 861.69,429.34 862.59,429.34 863.84,430.06"/>
    </edge>
    <edge id=":115_3" function="internal">
        <lane id=":115_3_0" index="0" speed="12.87" length="18.42" shape="850.03,418.81 854.35,420.28 858.09,422.64 861.25,425.90 863.84,430.06"/>
    </edge>
    <edge id=":115_4" function="internal">
        <lane id=":115_4_0" index="0" speed="7.64" length="8.39" shape="850.03,418.81 854.33,420.47 856.45,423.07 856.45,423.50"/>
    </edge>
    <edge id=":115_5" function="internal">
        <lane id=":115_5_0" index="0" speed="3.65" length="2.52" shape="850.03,418.81 851.03,419.85 851.25,420.72 851.14,420.86"/>
    </edge>
    <edge id=":115_10" function="internal">
        <lane id=":115_10_0" index="0" speed="7.64" length="8.08" shape="856.45,423.50 856.41,426.59 854.21,431.06"/>
    </edge>
    <edge id=":115_11" function="internal">
        <lane id=":115_11_0" index="0" speed="3.65" length="2.16" shape="851.14,420.86 850.69,421.42 849.34,421.94"/>
    </edge>
    <edge id=":115_6" function="internal">
        <lane id=":115_6_0" index="0" speed="6.02" length="9.74" shape="851.54,429.28 852.90,426.58 852.99,424.46 851.80,422.91 849.34,421.94"/>
    </edge>
    <edge id=":115_7" function="internal">
        <lane id=":115_7_0" index="0" speed="7.41" length="16.77" shape="851.54,429.28 854.87,425.50 858.02,424.37 861.01,425.89 863.84,430.06"/>
    </edge>
    <edge id=":115_8" function="internal">
        <lane id=":115_8_0" index="0" speed="3.65" length="4.67" shape="851.54,429.28 852.88,428.73 853.76,428.84 854.21,429.61 854.21,431.06"/>
    </edge>
    <edge id=":118_0" function="internal">
        <lane id=":118_0_0" index="0" speed="13.89" length="17.12" shape="464.87,415.85 460.93,416.84 456.49,417.39 452.00,417.57 447.91,417.44"/>
    </edge>
    <edge id=":118_1" function="internal">
        <lane id=":118_1_0" index="0" speed="9.29" length="6.45" shape="464.87,415.85 461.23,416.38 458.57,415.59"/>
    </edge>
    <edge id=":118_2" function="internal">
        <lane id=":118_2_0" index="0" speed="3.65" length="2.47" shape="464.87,415.85 463.47,415.49 462.83,414.87 462.85,414.73"/>
    </edge>
    <edge id=":118_9" function="internal">
        <lane id=":118_9_0" index="0" speed="9.29" length="10.05" shape="458.57,415.59 457.80,415.36 454.57,412.79 451.55,408.67"/>
    </edge>
    <edge id=":118_10" function="internal">
        <lane id=":118_10_0" index="0" speed="3.65" length="2.20" shape="462.85,414.73 462.94,413.98 463.81,412.83"/>
    </edge>
    <edge id=":118_3" function="internal">
        <lane id=":118_3_0" index="0" speed="8.03" length="12.09" shape="454.30,407.03 456.58,410.22 458.93,412.25 461.34,413.12 463.81,412.83"/>
    </edge>
    <edge id=":118_4" function="internal">
        <lane id=":118_4_0" index="0" speed="7.38" length="17.43" shape="454.30,407.03 456.43,411.91 456.07,415.28 453.23,417.12 447.91,417.44"/>
    </edge>
    <edge id=":118_5" function="internal">
        <lane id=":118_5_0" index="0" speed="3.65" length="4.67" shape="454.30,407.03 454.23,408.47 453.74,409.22 452.85,409.29 451.55,408.67"/>
    </edge>
    <edge id=":118_6" function="internal">
        <lane id=":118_6_0" index="0" speed="5.59" length="9.34" shape="448.13,414.25 450.98,414.08 452.50,413.09 452.69,411.29 451.55,408.67"/>
    </edge>
    <edge id=":118_7" function="internal">
        <lane id=":118_7_0" index="0" speed="13.89" length="15.84" shape="448.13,414.25 452.02,414.40 456.07,414.28 460.07,413.80 463.81,412.83"/>
    </edge>
    <edge id=":118_8" function="internal">
        <lane id=":118_8_0" index="0" speed="3.65" length="2.34" shape="448.13,414.25 449.27,415.13 449.62,415.95"/>
    </edge>
    <edge id=":118_11" function="internal">
        <lane id=":118_11_0" index="0" speed="3.65" length="2.34" shape="449.62,415.95 449.16,416.72 447.91,417.44"/>
    </edge>
    <edge id=":12_0" function="internal">
        <lane id=":12_0_0" index="0" speed="13.89" length="19.16" shape="768.39,571.64 765.38,568.46 761.31,565.25 756.94,562.44 752.99,560.48"/>
    </edge>
    <edge id=":12_1" function="internal">
        <lane id=":12_1_0" index="0" speed="13.89" length="20.94" shape="768.39,571.64 765.84,567.72 763.02,562.66 760.42,557.48 758.54,553.19"/>
    </edge>
    <edge id=":12_2" function="internal">
        <lane id=":12_2_0" index="0" speed="10.88" length="8.19" shape="768.39,571.64 766.08,567.32 765.60,564.06"/>
    </edge>
    <edge id=":12_3" function="internal">
        <lane id=":12_3_0" index="0" speed="7.68" length="6.90" shape="768.39,571.64 766.11,567.29 766.30,565.31"/>
    </edge>
    <edge id=":12_4" function="internal">
        <lane id=":12_4_0" index="0" speed="3.65" length="2.44" shape="768.39,571.64 768.31,570.20 768.72,569.40 768.82,569.38"/>
    </edge>
    <edge id=":12_25" function="internal">
        <lane id=":12_25_0" index="0" speed="10.88" length="11.84" shape="765.60,564.06 765.41,562.77 766.38,557.98 768.98,552.97"/>
    </edge>
    <edge id=":12_26" function="internal">
        <lane id=":12_26_0" index="0" speed="7.68" length="11.00" shape="766.30,565.31 766.44,563.89 769.38,561.45 774.94,559.97"/>
    </edge>
    <edge id=":12_27" function="internal">
        <lane id=":12_27_0" index="0" speed="3.65" length="2.23" shape="768.82,569.38 769.60,569.24 770.96,569.73"/>
    </edge>
    <edge id=":12_5" function="internal">
        <lane id=":12_5_0" index="0" speed="6.05" length="10.54" shape="775.41,563.13 771.97,564.01 770.08,565.40 769.74,567.31 770.96,569.73"/>
    </edge>
    <edge id=":12_6" function="internal">
        <lane id=":12_6_0" index="0" speed="13.89" length="22.69" shape="775.41,563.13 770.47,563.29 764.09,562.77 757.76,561.78 752.99,560.48"/>
    </edge>
    <edge id=":12_7" function="internal">
        <lane id=":12_7_0" index="0" speed="10.61" length="21.40" shape="775.41,563.13 769.72,563.19 765.02,561.55 761.29,558.22 758.54,553.19"/>
    </edge>
    <edge id=":12_8" function="internal">
        <lane id=":12_8_0" index="0" speed="7.40" length="18.69" shape="775.41,563.13 769.51,563.30 766.48,561.67 766.30,558.22 768.98,552.97"/>
    </edge>
    <edge id=":12_9" function="internal">
        <lane id=":12_9_0" index="0" speed="3.65" length="4.67" shape="775.41,563.13 774.10,562.52 773.59,561.78 773.87,560.93 774.94,559.97"/>
    </edge>
    <edge id=":12_10" function="internal">
        <lane id=":12_10_0" index="0" speed="5.50" length="9.60" shape="771.64,554.75 770.27,557.45 770.36,559.22 771.92,560.06 774.94,559.97"/>
    </edge>
    <edge id=":12_11" function="internal">
        <lane id=":12_11_0" index="0" speed="9.79" length="16.07" shape="771.64,554.75 769.50,558.83 768.67,562.68 769.16,566.32 770.96,569.73"/>
    </edge>
    <edge id=":12_12" function="internal">
        <lane id=":12_12_0" index="0" speed="10.55" length="21.36" shape="771.64,554.75 767.88,559.01 763.51,561.38 758.55,561.87 752.99,560.48"/>
    </edge>
    <edge id=":12_13" function="internal">
        <lane id=":12_13_0" index="0" speed="7.65" length="18.93" shape="771.64,554.75 767.85,559.11 764.40,560.30 761.30,558.33 758.54,553.19"/>
    </edge>
    <edge id=":12_14" function="internal">
        <lane id=":12_14_0" index="0" speed="3.65" length="4.67" shape="771.64,554.75 770.31,555.30 769.42,555.19 768.98,554.42 768.98,552.97"/>
    </edge>
    <edge id=":12_15" function="internal">
        <lane id=":12_15_0" index="0" speed="5.93" length="10.77" shape="761.53,552.05 763.10,554.98 764.87,556.11 766.83,555.44 768.98,552.97"/>
    </edge>
    <edge id=":12_16" function="internal">
        <lane id=":12_16_0" index="0" speed="9.51" length="17.03" shape="761.53,552.05 763.72,556.05 766.68,558.71 770.42,560.01 774.94,559.97"/>
    </edge>
    <edge id=":12_17" function="internal">
        <lane id=":12_17_0" index="0" speed="13.89" length="20.08" shape="761.53,552.05 763.34,556.21 765.80,561.13 768.48,565.93 770.96,569.73"/>
    </edge>
    <edge id=":12_18" function="internal">
        <lane id=":12_18_0" index="0" speed="7.40" length="6.80" shape="761.53,552.05 763.01,557.81 762.78,558.62"/>
    </edge>
    <edge id=":12_19" function="internal">
        <lane id=":12_19_0" index="0" speed="3.65" length="2.34" shape="761.53,552.05 761.21,553.45 760.61,554.11"/>
    </edge>
    <edge id=":12_28" function="internal">
        <lane id=":12_28_0" index="0" speed="7.40" length="12.02" shape="762.78,558.62 762.08,561.14 758.74,562.03 752.99,560.48"/>
    </edge>
    <edge id=":12_29" function="internal">
        <lane id=":12_29_0" index="0" speed="3.65" length="2.34" shape="760.61,554.11 759.72,554.03 758.54,553.19"/>
    </edge>
    <edge id=":12_20" function="internal">
        <lane id=":12_20_0" index="0" speed="5.49" length="9.62" shape="754.18,557.51 757.12,558.30 758.83,557.84 759.30,556.14 758.54,553.19"/>
    </edge>
    <edge id=":12_21" function="internal">
        <lane id=":12_21_0" index="0" speed="9.45" length="16.95" shape="754.18,557.51 758.59,558.61 762.53,558.23 765.99,556.35 768.98,552.97"/>
    </edge>
    <edge id=":12_22" function="internal">
        <lane id=":12_22_0" index="0" speed="13.89" length="21.03" shape="754.18,557.51 758.69,558.78 764.45,559.70 770.26,560.15 774.94,559.97"/>
    </edge>
    <edge id=":12_23" function="internal">
        <lane id=":12_23_0" index="0" speed="13.89" length="20.90" shape="754.18,557.51 758.34,559.63 763.19,562.81 767.73,566.39 770.96,569.73"/>
    </edge>
    <edge id=":12_24" function="internal">
        <lane id=":12_24_0" index="0" speed="3.65" length="4.67" shape="754.18,557.51 755.00,558.70 755.07,559.59 754.40,560.18 752.99,560.48"/>
    </edge>
    <edge id=":122_0" function="internal">
        <lane id=":122_0_0" index="0" speed="6.55" length="7.91" shape="1136.59,529.49 1134.47,529.47 1132.75,530.08 1131.41,531.34 1130.47,533.24"/>
    </edge>
    <edge id=":122_1" function="internal">
        <lane id=":122_1_0" index="0" speed="8.64" length="12.14" shape="1136.59,529.49 1133.42,528.63 1130.95,527.08 1129.19,524.85 1128.14,521.93"/>
    </edge>
    <edge id=":122_2" function="internal">
        <lane id=":122_2_0" index="0" speed="3.65" length="4.67" shape="1136.59,529.49 1135.52,528.52 1135.24,527.67 1135.75,526.94 1137.06,526.32"/>
    </edge>
    <edge id=":122_3" function="internal">
        <lane id=":122_3_0" index="0" speed="7.22" length="8.24" shape="1131.27,521.25 1131.98,523.20 1133.18,524.70 1134.88,525.74 1137.06,526.32"/>
    </edge>
    <edge id=":122_4" function="internal">
        <lane id=":122_4_0" index="0" speed="13.89" length="12.20" shape="1131.27,521.25 1131.81,524.52 1131.86,527.30 1131.41,530.06 1130.47,533.24"/>
    </edge>
    <edge id=":122_5" function="internal">
        <lane id=":122_5_0" index="0" speed="3.65" length="2.34" shape="1131.27,521.25 1130.74,522.60 1130.04,523.16"/>
    </edge>
    <edge id=":122_9" function="internal">
        <lane id=":122_9_0" index="0" speed="3.65" length="2.34" shape="1130.04,523.16 1129.17,522.93 1128.14,521.93"/>
    </edge>
    <edge id=":122_6" function="internal">
        <lane id=":122_6_0" index="0" speed="13.89" length="10.53" shape="1127.43,532.22 1128.37,529.30 1128.78,527.13 1128.70,524.93 1128.14,521.93"/>
    </edge>
    <edge id=":122_7" function="internal">
        <lane id=":122_7_0" index="0" speed="8.05" length="4.97" shape="1127.43,532.22 1128.92,529.24 1130.11,528.11"/>
    </edge>
    <edge id=":122_8" function="internal">
        <lane id=":122_8_0" index="0" speed="3.65" length="2.34" shape="1127.43,532.22 1128.58,531.34 1129.46,531.21"/>
    </edge>
    <edge id=":122_10" function="internal">
        <lane id=":122_10_0" index="0" speed="8.05" length="7.46" shape="1130.11,528.11 1131.02,527.26 1133.73,526.29 1137.06,526.32"/>
    </edge>
    <edge id=":122_11" function="internal">
        <lane id=":122_11_0" index="0" speed="3.65" length="2.34" shape="1129.46,531.21 1130.09,531.85 1130.47,533.24"/>
    </edge>
    <edge id=":124_0" function="internal">
        <lane id=":124_0_0" index="0" speed="7.52" length="11.13" shape="1213.66,817.09 1211.45,815.01 1209.07,814.01 1206.52,814.09 1203.80,815.25"/>
    </edge>
    <edge id=":124_1" function="internal">
        <lane id=":124_1_0" index="0" speed="13.89" length="15.98" shape="1213.66,817.09 1203.14,805.06"/>
    </edge>
    <edge id=":124_2" function="internal">
        <lane id=":124_2_0" index="0" speed="7.62" length="5.74" shape="1213.66,817.09 1211.42,813.35 1211.31,811.98"/>
    </edge>
    <edge id=":124_3" function="internal">
        <lane id=":124_3_0" index="0" speed="3.65" length="2.34" shape="1213.66,817.09 1213.53,815.66 1213.90,814.84"/>
    </edge>
    <edge id=":124_16" function="internal">
        <lane id=":124_16_0" index="0" speed="7.62" length="9.55" shape="1211.31,811.98 1211.16,810.08 1212.87,807.28 1216.55,804.94"/>
    </edge>
    <edge id=":124_17" function="internal">
        <lane id=":124_17_0" index="0" speed="3.65" length="2.34" shape="1213.90,814.84 1214.77,814.65 1216.15,815.08"/>
    </edge>
    <edge id=":124_4" function="internal">
        <lane id=":124_4_0" index="0" speed="6.02" length="9.08" shape="1217.86,807.86 1215.68,809.25 1214.66,810.91 1214.82,812.86 1216.15,815.08"/>
    </edge>
    <edge id=":124_5" function="internal">
        <lane id=":124_5_0" index="0" speed="13.89" length="15.89" shape="1217.86,807.86 1214.34,809.52 1210.72,811.35 1207.16,813.29 1203.80,815.25"/>
    </edge>
    <edge id=":124_6" function="internal">
        <lane id=":124_6_0" index="0" speed="9.76" length="16.11" shape="1217.86,807.86 1213.76,809.12 1209.94,809.07 1206.40,807.72 1203.14,805.06"/>
    </edge>
    <edge id=":124_7" function="internal">
        <lane id=":124_7_0" index="0" speed="3.65" length="4.67" shape="1217.86,807.86 1216.44,807.63 1215.75,807.06 1215.79,806.17 1216.55,804.94"/>
    </edge>
    <edge id=":124_8" function="internal">
        <lane id=":124_8_0" index="0" speed="8.54" length="12.12" shape="1205.46,802.87 1207.91,804.86 1210.58,805.86 1213.46,805.89 1216.55,804.94"/>
    </edge>
    <edge id=":124_9" function="internal">
        <lane id=":124_9_0" index="0" speed="13.89" length="16.23" shape="1205.46,802.87 1216.15,815.08"/>
    </edge>
    <edge id=":124_10" function="internal">
        <lane id=":124_10_0" index="0" speed="7.68" length="6.45" shape="1205.46,802.87 1207.92,806.35 1208.28,808.51"/>
    </edge>
    <edge id=":124_11" function="internal">
        <lane id=":124_11_0" index="0" speed="3.65" length="2.34" shape="1205.46,802.87 1205.71,804.29 1205.40,805.13"/>
    </edge>
    <edge id=":124_18" function="internal">
        <lane id=":124_18_0" index="0" speed="7.68" length="8.60" shape="1208.28,808.51 1208.46,809.57 1207.09,812.54 1203.80,815.25"/>
    </edge>
    <edge id=":124_19" function="internal">
        <lane id=":124_19_0" index="0" speed="3.65" length="2.34" shape="1205.40,805.13 1204.54,805.39 1203.14,805.06"/>
    </edge>
    <edge id=":124_12" function="internal">
        <lane id=":124_12_0" index="0" speed="6.10" length="9.06" shape="1202.14,812.52 1204.11,810.89 1204.94,809.10 1204.61,807.16 1203.14,805.06"/>
    </edge>
    <edge id=":124_13" function="internal">
        <lane id=":124_13_0" index="0" speed="13.89" length="16.29" shape="1202.14,812.52 1205.55,810.53 1209.24,808.52 1212.98,806.63 1216.55,804.94"/>
    </edge>
    <edge id=":124_14" function="internal">
        <lane id=":124_14_0" index="0" speed="8.86" length="15.80" shape="1202.14,812.52 1206.01,810.85 1209.63,810.73 1213.01,812.13 1216.15,815.08"/>
    </edge>
    <edge id=":124_15" function="internal">
        <lane id=":124_15_0" index="0" speed="3.65" length="4.67" shape="1202.14,812.52 1203.58,812.58 1204.34,813.05 1204.41,813.94 1203.80,815.25"/>
    </edge>
    <edge id=":127_0" function="internal">
        <lane id=":127_0_0" index="0" speed="13.89" length="12.31" shape="1041.78,1039.38 1038.66,1040.62 1036.11,1041.88 1033.84,1043.53 1031.57,1045.94"/>
    </edge>
    <edge id=":127_1" function="internal">
        <lane id=":127_1_0" index="0" speed="7.67" length="5.48" shape="1041.78,1039.38 1037.62,1040.32 1036.44,1040.05"/>
    </edge>
    <edge id=":127_2" function="internal">
        <lane id=":127_2_0" index="0" speed="3.65" length="2.34" shape="1041.78,1039.38 1040.37,1039.06 1039.71,1038.46"/>
    </edge>
    <edge id=":127_9" function="internal">
        <lane id=":127_9_0" index="0" speed="7.67" length="9.60" shape="1036.44,1040.05 1034.43,1039.58 1032.22,1037.17 1030.98,1033.09"/>
    </edge>
    <edge id=":127_10" function="internal">
        <lane id=":127_10_0" index="0" speed="3.65" length="2.34" shape="1039.71,1038.46 1039.80,1037.57 1040.64,1036.39"/>
    </edge>
    <edge id=":127_3" function="internal">
        <lane id=":127_3_0" index="0" speed="6.09" length="9.06" shape="1034.15,1032.61 1034.89,1035.07 1036.22,1036.51 1038.14,1036.96 1040.64,1036.39"/>
    </edge>
    <edge id=":127_4" function="internal">
        <lane id=":127_4_0" index="0" speed="11.75" length="13.96" shape="1034.15,1032.61 1034.48,1036.66 1034.16,1040.23 1033.19,1043.33 1031.57,1045.94"/>
    </edge>
    <edge id=":127_5" function="internal">
        <lane id=":127_5_0" index="0" speed="3.65" length="4.67" shape="1034.15,1032.61 1033.54,1033.92 1032.81,1034.43 1031.95,1034.16 1030.98,1033.09"/>
    </edge>
    <edge id=":127_6" function="internal">
        <lane id=":127_6_0" index="0" speed="10.61" length="11.29" shape="1029.09,1043.91 1030.33,1041.87 1031.06,1039.38 1031.27,1036.46 1030.98,1033.09"/>
    </edge>
    <edge id=":127_7" function="internal">
        <lane id=":127_7_0" index="0" speed="13.89" length="13.95" shape="1029.09,1043.91 1031.57,1041.36 1034.30,1039.37 1037.31,1037.78 1040.64,1036.39"/>
    </edge>
    <edge id=":127_8" function="internal">
        <lane id=":127_8_0" index="0" speed="3.65" length="2.46" shape="1029.09,1043.91 1030.47,1043.49 1031.34,1043.69 1031.39,1043.80"/>
    </edge>
    <edge id=":127_11" function="internal">
        <lane id=":127_11_0" index="0" speed="3.65" length="2.22" shape="1031.39,1043.80 1031.71,1044.50 1031.57,1045.94"/>
    </edge>
    <edge id=":137_0" function="internal">
        <lane id=":137_0_0" index="0" speed="10.89" length="19.96" shape="846.74,1047.35 841.82,1050.01 837.08,1051.05 832.52,1050.45 828.13,1048.22"/>
    </edge>
    <edge id=":137_1" function="internal">
        <lane id=":137_1_0" index="0" speed="7.39" length="10.07" shape="846.74,1047.35 841.60,1050.09 838.16,1049.97 837.75,1049.27"/>
    </edge>
    <edge id=":137_2" function="internal">
        <lane id=":137_2_0" index="0" speed="3.65" length="2.51" shape="846.74,1047.35 845.29,1047.38 844.51,1046.95 844.48,1046.78"/>
    </edge>
    <edge id=":137_9" function="internal">
        <lane id=":137_9_0" index="0" speed="7.39" length="8.45" shape="837.75,1049.27 836.42,1047.00 836.39,1041.18"/>
    </edge>
    <edge id=":137_10" function="internal">
        <lane id=":137_10_0" index="0" speed="3.65" length="2.16" shape="844.48,1046.78 844.38,1046.06 844.91,1044.72"/>
    </edge>
    <edge id=":137_3" function="internal">
        <lane id=":137_3_0" index="0" speed="5.51" length="9.56" shape="839.57,1041.54 839.59,1044.54 840.48,1046.08 842.26,1046.14 844.91,1044.72"/>
    </edge>
    <edge id=":137_4" function="internal">
        <lane id=":137_4_0" index="0" speed="7.65" length="17.82" shape="839.57,1041.54 838.28,1047.09 835.94,1050.05 832.56,1050.43 828.13,1048.22"/>
    </edge>
    <edge id=":137_5" function="internal">
        <lane id=":137_5_0" index="0" speed="3.65" length="4.67" shape="839.57,1041.54 838.64,1042.64 837.80,1042.95 837.05,1042.46 836.39,1041.18"/>
    </edge>
    <edge id=":137_6" function="internal">
        <lane id=":137_6_0" index="0" speed="6.00" length="10.40" shape="829.98,1045.61 832.43,1046.79 834.32,1046.44 835.64,1044.57 836.39,1041.18"/>
    </edge>
    <edge id=":137_7" function="internal">
        <lane id=":137_7_0" index="0" speed="9.80" length="16.03" shape="829.98,1045.61 833.45,1047.35 837.10,1047.78 840.92,1046.91 844.91,1044.72"/>
    </edge>
    <edge id=":137_8" function="internal">
        <lane id=":137_8_0" index="0" speed="3.65" length="2.07" shape="829.98,1045.61 830.50,1046.96 830.40,1047.58"/>
    </edge>
    <edge id=":137_11" function="internal">
        <lane id=":137_11_0" index="0" speed="3.65" length="2.60" shape="830.40,1047.58 830.36,1047.84 829.57,1048.26 828.13,1048.22"/>
    </edge>
    <edge id=":14_0" function="internal">
        <lane id=":14_0_0" index="0" speed="7.36" length="11.12" shape="576.57,385.22 574.84,382.16 572.87,380.23 570.65,379.44 568.19,379.77"/>
    </edge>
    <edge id=":14_1" function="internal">
        <lane id=":14_1_0" index="0" speed="7.41" length="16.65" shape="576.57,385.22 575.18,380.44 575.91,377.17 578.76,375.42 583.73,375.17"/>
    </edge>
    <edge id=":14_2" function="internal">
        <lane id=":14_2_0" index="0" speed="3.65" length="4.67" shape="576.57,385.22 576.82,383.80 577.39,383.11 578.28,383.15 579.50,383.92"/>
    </edge>
    <edge id=":14_3" function="internal">
        <lane id=":14_3_0" index="0" speed="5.69" length="9.22" shape="583.46,378.36 580.71,378.50 579.13,379.47 578.73,381.28 579.50,383.92"/>
    </edge>
    <edge id=":14_4" function="internal">
        <lane id=":14_4_0" index="0" speed="13.89" length="15.44" shape="583.46,378.36 579.64,378.17 575.73,378.29 571.87,378.80 568.19,379.77"/>
    </edge>
    <edge id=":14_5" function="internal">
        <lane id=":14_5_0" index="0" speed="3.65" length="2.34" shape="583.46,378.36 582.33,377.46 582.00,376.63"/>
    </edge>
    <edge id=":14_9" function="internal">
        <lane id=":14_9_0" index="0" speed="3.65" length="2.34" shape="582.00,376.63 582.47,375.87 583.73,375.17"/>
    </edge>
    <edge id=":14_6" function="internal">
        <lane id=":14_6_0" index="0" speed="13.89" length="16.77" shape="567.14,376.75 571.02,375.75 575.34,375.19 579.70,375.01 583.73,375.17"/>
    </edge>
    <edge id=":14_7" function="internal">
        <lane id=":14_7_0" index="0" speed="8.71" length="6.59" shape="567.14,376.75 570.89,376.16 573.56,376.96"/>
    </edge>
    <edge id=":14_8" function="internal">
        <lane id=":14_8_0" index="0" speed="3.65" length="2.46" shape="567.14,376.75 568.53,377.11 569.17,377.73 569.16,377.86"/>
    </edge>
    <edge id=":14_10" function="internal">
        <lane id=":14_10_0" index="0" speed="8.71" length="9.37" shape="573.56,376.96 574.20,377.16 577.07,379.74 579.50,383.92"/>
    </edge>
    <edge id=":14_11" function="internal">
        <lane id=":14_11_0" index="0" speed="3.65" length="2.21" shape="569.16,377.86 569.06,378.62 568.19,379.77"/>
    </edge>
    <edge id=":18_0" function="internal">
        <lane id=":18_0_0" index="0" speed="8.64" length="11.94" shape="1084.45,679.48 1082.44,678.05 1079.89,677.48 1076.82,677.76 1073.22,678.89"/>
    </edge>
    <edge id=":18_1" function="internal">
        <lane id=":18_1_0" index="0" speed="13.89" length="15.38" shape="1084.45,679.48 1081.76,676.78 1078.91,674.15 1075.97,671.61 1073.04,669.18"/>
    </edge>
    <edge id=":18_2" function="internal">
        <lane id=":18_2_0" index="0" speed="10.29" length="5.37" shape="1084.45,679.48 1082.50,676.64 1081.96,674.79"/>
    </edge>
    <edge id=":18_3" function="internal">
        <lane id=":18_3_0" index="0" speed="3.65" length="2.34" shape="1084.45,679.48 1084.21,678.05 1084.52,677.21"/>
    </edge>
    <edge id=":18_16" function="internal">
        <lane id=":18_16_0" index="0" speed="10.29" length="9.76" shape="1081.96,674.79 1081.54,673.31 1081.57,669.51 1082.60,665.22"/>
    </edge>
    <edge id=":18_17" function="internal">
        <lane id=":18_17_0" index="0" speed="3.65" length="2.34" shape="1084.52,677.21 1085.37,676.95 1086.78,677.28"/>
    </edge>
    <edge id=":18_4" function="internal">
        <lane id=":18_4_0" index="0" speed="9.09" length="11.66" shape="1085.63,666.24 1084.79,669.65 1084.70,672.62 1085.36,675.16 1086.78,677.28"/>
    </edge>
    <edge id=":18_5" function="internal">
        <lane id=":18_5_0" index="0" speed="13.11" length="18.30" shape="1085.63,666.24 1083.74,670.35 1081.04,673.83 1077.53,676.68 1073.22,678.89"/>
    </edge>
    <edge id=":18_6" function="internal">
        <lane id=":18_6_0" index="0" speed="7.65" length="16.38" shape="1085.63,666.24 1083.54,670.30 1080.74,672.14 1077.24,671.77 1073.04,669.18"/>
    </edge>
    <edge id=":18_7" function="internal">