<?xml version="1.0" ?>
<!-- generated on 2021-09-17 12:37:29 by Eclipse SUMO jtrrouter Version 1.9.2
<configuration xmlns:xsi="http://www.w3.org/2001/XMLSchema-instance" xsi:noNamespaceSchemaLocation="http://sumo.dlr.de/xsd/jtrrouterConfiguration.xsd">

    <input>
        <net-file value="../network.net.xml"/>
        <route-files value="flows.xml"/>
    </input>

    <output>
        <output-file value="routes.xml"/>
        <vtype-output value="../vtype.xml"/>
    </output>

    <processing>
        <no-internal-links value="true"/>
        <turn-defaults value="25,50,25"/>
        <accept-all-destinations value="true"/>
    </processing>

</configuration>
-->
<routes xmlns:xsi="http://www.w3.org/2001/XMLSchema-instance" xsi:noNamespaceSchemaLocation="http://sumo.dlr.de/xsd/routes_file.xsd">
	
    
	<vehicle depart="0.00" departPos="random" departSpeed="max" id="0.0" reroute="true">
		
        
		<route edges="123 -123 121 -64 38 325 -325 -117 -15 -3 11 -11 7 333 -138 210 -381 383 -383 -128 126 -125 125 344 -349 349 365 -365 -344 -126 128 381 -210 -25 -9 9 17 64 326 -116 -17 25 138 -333 -7 3 13 116 -326 -121 -19 19"/>
		
    
		<stop duration="86400" parkingArea="pl344"/>
	</vehicle>
	
    
	<vehicle depart="0.00" departPos="random" departSpeed="max" id="1.0" reroute="true">
		
        
		<route edges="-319 -38 -13 13 -17 25 128 383 -383 381 -210 126 -125 -19 -9 3 -3 9 17 64 -121 125 344 -349 -381 -128 138 -333 356 -348 -138 -25 19 123 336 361 -361 -336 338 -338 -123 121 -64 38 -117 117 313 -313 319"/>
		
    
		<stop duration="86400" parkingArea="pl338"/>
	</vehicle>
	
    
	<vehicle depart="0.00" departPos="random" departSpeed="max" id="10.0" reroute="true">
		
        
		<route edges="3 13 -17 25 -25 17 64 -121 125 -126 138 -333 356 -348 348 -356 -7 11 -11 9 -9 7 333 -138 210 -381 381 349 -344 344 365 -365 379 -379 -349 -210 126 -125 121 -64 116 -326 326 -313 319 -319 -117 117 313 -116 -13 15 -15 -3"/>
		
    
		<stop duration="86400" parkingArea="pl-3"/>
	</vehicle>
	
    
	<vehicle depart="0.00" departPos="random" departSpeed="max" id="100.0" reroute="true">
		
        
		<route edges="64 -121 123 336 361 -361 -336 338 -338 -123 121 326 -313 313 -116 116 -326 -64 38 319 -319 325 -325 -38 -13 15 117 -117 -15 -3 9 25 126 -125 -19 -9 7 -7 11 -11 3 13 -17 19 125 344 -344 -126 -25 17"/>
		
    
		<stop duration="86400" parkingArea="pl344"/>
	</vehicle>
	
    
	<vehicle depart="0.00" departPos="random" departSpeed="max" id="101.0" reroute="true">
		
        
		<route edges="333 348 -356 -7 9 25 138 -333 356 -348 -138 -25 17 64 -121 -19 -9 3 13 38 325 -325 -117 -15 -3 11 -11 7"/>
		
    
		<stop duration="86400" parkingArea="pl-3"/>
	</vehicle>
	
    
	<vehicle depart="0.00" departPos="random" departSpeed="max" id="102.0" reroute="true">
		
        
		<route edges="-38 38 319 -319 313 -116 -13 15 -15 -3 7 -7 3 13 116 -326 -121 123 338 -338 336 361 -361 -336 -123 -19 17 64 326 -313 325 -325 -117 119 -119 117"/>
		
    
		<stop duration="86400" parkingArea="pl336"/>
	</vehicle>
	
    
	<vehicle depart="0.00" departPos="random" departSpeed="max" id="103.0" reroute="true">
		
        
		<route edges="-348 -138 126 344 -349 -381 381 349 365 -365 379 -379 -344 -125 125 -126 138 348 -356 -7 3 13 116 -326 326 -313 313 -116 38 325 -325 -117 117 -38 -17 -9 11 -11 7 333 -333 356"/>
		
    
		<stop duration="86400" parkingArea="pl-356"/>
	</vehicle>
	
    
	<vehicle depart="0.00" departPos="random" departSpeed="max" id="104.0" reroute="true">
		
        
		<route edges="-338 -123 123 336 361 -361 -336 338"/>
		
    
		<stop duration="86400" parkingArea="pl338"/>
	</vehicle>
	
    
	<vehicle depart="0.00" departPos="random" departSpeed="max" id="105.0" reroute="true">
		
        
		<route edges="-319 325 -325 319 -138"/>
		
    
		<stop duration="86400" parkingArea="pl-138"/>
	</vehicle>
	
    
	<vehicle depart="0.00" departPos="random" departSpeed="max" id="106.0" reroute="true">
		
        
		<route edges="-361 -336 -123 125 344 379 -379 -344 -125 123 338 -338 336 361"/>
		
    
		<stop duration="86400" parkingArea="pl336"/>
	</vehicle>
	
    
	<vehicle depart="0.00" departPos="random" departSpeed="max" id="107.0" reroute="true">
		
        
		<route edges="64 -121 -19 -9 9 17 38 325 -325 313 -326 -64 116 -313 319 -319 -38 -13 15 119 330 -330 332 -332 -119 117 -117 -15 -3 11 -11 7 333 -138 210 349 365 -365 379 -379 -344 -126 138 -333 -7 3 13 -17 19 121 326 -116"/>
		
    
		<stop duration="86400" parkingArea="pl-138"/>
	</vehicle>
	
    
	<vehicle depart="0.00" departPos="random" departSpeed="max" id="108.0" reroute="true">
		
        
		<route edges="-7 9 25 138 348 -356 356 -348 -333 333 -138 210 -381 383 -383 381 349 -344 -125 -19 19 125 344 365 -365 -349 -210 126 -126 -25 -9 7"/>
		
    
		<stop duration="86400" parkingArea="pl344"/>
	</vehicle>
	
    
	<vehicle depart="0.00" departPos="random" departSpeed="max" id="109.0" reroute="true">
		
        
		<route edges="-138 126 -126 -25 25 128 383 -383 381 -381 -128 138 348 -356 356 -348 -333 -7 9 19 -19 -9 7 333"/>
		
    
		<stop duration="86400" parkingArea="pl-138"/>
	</vehicle>
	
    
	<vehicle depart="0.00" departPos="random" departSpeed="max" id="11.0" reroute="true">
		
        
		<route edges="-333 356 -348 -138 126 -126 138 348 -356 -7 7 333"/>
		
    
		<stop duration="86400" parkingArea="pl-356"/>
	</vehicle>
	
    
	<vehicle depart="0.00" departPos="random" departSpeed="max" id="110.0" reroute="true">
		
        
		<route edges="64 -121 -19 -9 7 -7 3 13 116 -116 -17 19 123 336 361 -361 -336 338 -338 -123 125 -125 121 -64 -13 15 -15 -3 11 -11 9 17 38 -38"/>
		
    
		<stop duration="86400" parkingArea="pl-3"/>
	</vehicle>
	
    
	<vehicle depart="0.00" departPos="random" departSpeed="max" id="111.0" reroute="true">
		
        
		<route edges="-64 116 -116 -13 15 -15 13 -17 25 -25 -9 9 19 -19 17 64 -121 125 -125 121 326 -313 -38 38 325 -325 319 -319 -117 119 330 -330 -119 117 313 -326"/>
		
    
		<stop duration="86400" parkingArea="pl330"/>
	</vehicle>
	
    
	<vehicle depart="0.00" departPos="random" departSpeed="max" id="112.0" reroute="true">
		
        
		<route edges="-119 -15 -3 11 -11 3 13 64 -121 125 -126 -25 -9 7 -7 9 25 210 -381 381 -210 138 348 -356 333 -138 128 -128 126 -125 121 326 -313 -117 119 330 -330 332 -332"/>
		
    
		<stop duration="86400" parkingArea="pl330"/>
	</vehicle>
	
    
	<vehicle depart="0.00" departPos="random" departSpeed="max" id="113.0" reroute="true">
		
        
		<route edges="-381 -128 128 383 -383 381 349 365 -365 -344 -125 121 326 -116 38 -38 -17 25 -25 17 -13 15 117 -117 119 330 -330 332 -332 -119 -15 13 64 -64 116 -326 -121 -19 19 125 -126 138 -138 210 -210 126 344 379 -379 -349"/>
		
    
		<stop duration="86400" parkingArea="pl344"/>
	</vehicle>
	
    
	<vehicle depart="0.00" departPos="random" departSpeed="max" id="114.0" reroute="true">
		
        
		<route edges="-138 138 -333 -7 9 19 121 326 -313 -117 119 -119 -15 15 117 313 -326 -121 -19 -9 11 -11 7 333 348 -356 356 -348"/>
		
    
		<stop duration="86400" parkingArea="pl-138"/>
	</vehicle>
	
    
	<vehicle depart="0.00" departPos="random" departSpeed="max" id="115.0" reroute="true">
		
        
		<route edges="-123 -19 17 116 -313 325 -325 -117 117 -38 64 -121 125 344 -344 -125 121 -64 38 313 -326 326 -116 -13 15 -15 -3 9 19 123 336 361 -361 -336 338 -338"/>
		
    
		<stop duration="86400" parkingArea="pl338"/>
	</vehicle>
	
    
	<vehicle depart="0.00" departPos="random" departSpeed="max" id="116.0" reroute="true">
		
        
		<route edges="117 319 -319 -117 119 330 -330 332 -332 -119 -15 15"/>
		
    
		<stop duration="86400" parkingArea="pl330"/>
	</vehicle>
	
    
	<vehicle depart="0.00" departPos="random" departSpeed="max" id="117.0" reroute="true">
		
        
		<route edges="-25 17 -13 15 119 330 -330 -119 117 -38 64 -121 125 -126 210 -210 126 344 -349 349 379 -379 365 -365 -344 -125 123 336 361 -361 -336 -123 -19 19 121 326 -313 319 -319 -117 -15 -3 9 25 128 -128 138 348 -356 333 -138"/>
		
    
		<stop duration="86400" parkingArea="pl-138"/>
	</vehicle>
	
    
	<vehicle depart="0.00" departPos="random" departSpeed="max" id="118.0" reroute="true">
		
        
		<route edges="348 -356 333 -138 138 -333 -7 7 356 -348"/>
		
    
		<stop duration="86400" parkingArea="pl-138"/>
	</vehicle>
	
    
	<vehicle depart="0.00" departPos="random" departSpeed="max" id="119.0" reroute="true">
		
        
		<route edges="117 313 -326 -121 125 -126 128 383 -383 381 -381 -128 -25 19 123 336 361 -361 -336 -123 121 326 -313 -117 119 -119 -15 -3 11 -11 9 25 138 -333 333 348 -356 356 -348 -138 126 344 -349 -210 210 349 365 -365 -344 -125 -19 17 38 319 -319 -38 64 -64 116 -116 -17 -9 7 -7 3 13 -13 15"/>
		
    
		<stop duration="86400" parkingArea="pl-13"/>
	</vehicle>
	
    
	<vehicle depart="0.00" departPos="random" departSpeed="max" id="12.0" reroute="true">
		
        
		<route edges="64 -64 -17 19 123 336 361 -361 -336 338 -338 -123 -19 -9 3 13 38 313 -326 -121 121 326 -313 325 -325 -38 116 -116 -13 15 -15 -3 11 -11 7 -7 9 25 138 348 -356 333 -333 356 -348 -138 210 -381 -128 126 344 365 -365 -344 -126 -25 17"/>
		
    
		<stop duration="86400" parkingArea="pl344"/>
	</vehicle>
	
    
	<vehicle depart="0.00" departPos="random" departSpeed="max" id="120.0" reroute="true">
		
        
		<route edges="-349 -210 -25 17 116 -116 -17 25 210 -381 -128 138 348 -356 356 -348 -333 333 -138 126 344 379 -379 365 -365 -344 -125 123 336 361 -361 -336 338 -338 -123 125 -126 128 383 -383 381 349"/>
		
    
		<stop duration="86400" parkingArea="pl383"/>
	</vehicle>
	
    
	<vehicle depart="0.00" departPos="random" departSpeed="max" id="121.0" reroute="true">
		
        
		<route edges="-383 381 349 379 -379 -344 -126 138 -333 356 -348 -138 210 -381 -128 128 383"/>
		
    
		<stop duration="86400" parkingArea="pl383"/>
	</vehicle>
	
    
	<vehicle depart="0.00" departPos="random" departSpeed="max" id="122.0" reroute="true">
		
        
		<route edges="-19 -9 11 -11 9 19 123 336 361 -361 -336 338 -338 -123 125 344 -349 -381 383 -383 381 -210 126 -126 -25 17 -17 25 128 -128 210 349 -344 -125 121 -64 64 -121"/>
		
    
		<stop duration="86400" parkingArea="pl383"/>
	</vehicle>
	
    
	<vehicle depart="0.00" departPos="random" departSpeed="max" id="123.0" reroute="true">
		
        
		<route edges="-3 11 -11 9 25 126 -126 210 -381 -128 -25 -9 3 13 64 -121 -19 17 116 -116 -17 19 125 344 -349 349 365 -365 -344 -125 123 338 -338 -123 121 -64 38 325 -325 313 -326 326 -313 319 -319 -38 -13 15 117 -117 -15"/>
		
    
		<stop duration="86400" parkingArea="pl-3"/>
	</vehicle>
	
    
	<vehicle depart="0.00" departPos="random" departSpeed="max" id="124.0" reroute="true">
		
        
		<route edges="126 -126 128 -128 -25 17 64 -121 121 326 -313 325 -325 -117 -15 -3 7 356 -348 -333 333 -138 138 348 -356 -7 3 13 -17 25 210 349 379 -379 -344 -125 125 344 365 -365 -349 -210"/>
		
    
		<stop duration="86400" parkingArea="pl344"/>
	</vehicle>
	
    
	<vehicle depart="0.00" departPos="random" departSpeed="max" id="125.0" reroute="true">
		
        
		<route edges="-330 332 -332 330"/>
		
    
		<stop duration="86400" parkingArea="pl330"/>
	</vehicle>
	
    
	<vehicle depart="0.00" departPos="random" departSpeed="max" id="126.0" reroute="true">
		
        
		<route edges="-121 -19 17 116 -326 -64 38 325 -325 -38 -17 -9 9 25 126 -126 138 348 -356 333 -138 128 383 -383 381 -210 210 -381 -128 -25 19 123 338 -338 336 361 -361 -336 -123 125 -125 121 326 -313 313 -116 64"/>
		
    
		<stop duration="86400" parkingArea="pl336"/>
	</vehicle>
	
    
	<vehicle depart="0.00" departPos="random" departSpeed="max" id="127.0" reroute="true">
		
        
		<route edges="9 17 116 -116 -17 25 128 -128 126 -126 -25 19 -19 -9 7 333 -333 356 -348 348 -356 -7 11 -11 3 -3"/>
		
    
		<stop duration="86400" parkingArea="pl-3"/>
	</vehicle>
	
    
	<vehicle depart="0.00" departPos="random" departSpeed="max" id="128.0" reroute="true">
		
        
		<route edges="-121 -19 25 210 349 365 -365 -349 -210 138 -333 356 -348 348 -356 -7 7 333 -138 -25 19 125 -125 121 -64 116 -116 -17 -9 11 -11 9 17 64 326 -326"/>
		
    
		<stop duration="86400" parkingArea="pl-138"/>
	</vehicle>
	
    
	<vehicle depart="0.00" departPos="random" departSpeed="max" id="129.0" reroute="true">
		
        
		<route edges="-319 313 -116 -13 15 117 325 -325 319"/>
		
    
		<stop duration="86400" parkingArea="pl-13"/>
	</vehicle>
	
    
	<vehicle depart="0.00" departPos="random" departSpeed="max" id="13.0" reroute="true">
		
        
		<route edges="-125 121 326 -116 -13 15 -15 -3 9 25 128 381 349 365 -365 -344 -126 -25 -9 3 13 64 -121 125 344 -349 -381 -128 210 -210 126"/>
		
    
		<stop duration="86400" parkingArea="pl344"/>
	</vehicle>
	
    
	<vehicle depart="0.00" departPos="random" departSpeed="max" id="130.0" reroute="true">
		
        
		<route edges="344 -349 349 -344 -126 138 -138 210 -210 -25 -9 9 17 116 -326 326 -313 325 -325 -117 -15 13 38 319 -319 -38 -13 -3 11 -11 3 15 117 313 -116 64 -64 -17 19 125 -125 121 -121 123 336 361 -361 -336 338 -338 -123 -19 25 126"/>
		
    
		<stop duration="86400" parkingArea="pl344"/>
	</vehicle>
	
    
	<vehicle depart="0.00" departPos="random" departSpeed="max" id="131.0" reroute="true">
		
        
		<route edges="-338 -123 123 336 361 -361 -336 338"/>
		
    
		<stop duration="86400" parkingArea="pl338"/>
	</vehicle>
	
    
	<vehicle depart="0.00" departPos="random" departSpeed="max" id="132.0" reroute="true">
		
        
		<route edges="326 -116 -13 15 117 -117 119 -119 -15 -3 3 13 38 313 -326 -64 116 -313 -38 -17 19 123 336 361 -361 -336 338 -338 -123 -19 -9 9 25 128 383 -383 381 349 365 -365 -344 -125 125 -126 126 344 379 -379 -349 -210 -25 17 64 -121 121"/>
		
    
		<stop duration="86400" parkingArea="pl344"/>
	</vehicle>
	
    
	<vehicle depart="0.00" departPos="random" departSpeed="max" id="133.0" reroute="true">
		
        
		<route edges="119 330 -330 332 -332 -119 117 -38 116 -313 325 -325 -117 -15 15"/>
		
    
		<stop duration="86400" parkingArea="pl330"/>
	</vehicle>
	
    
	<vehicle depart="0.00" departPos="random" departSpeed="max" id="134.0" reroute="true">
		
        
		<route edges="125 -126 128 383 -383 381 349 365 -365 -344 -125 -19 25 138 348 -356 356 -348 -333 333 -138 210 -210 -25 -9 7 -7 9 19 123 338 -338 336 361 -361 -336 -123 121 326 -313 325 -325 -117 119 330 -330 -119 117 319 -319 -38 64 -64 116 -326 -121"/>
		
    
		<stop duration="86400" parkingArea="pl330"/>
	</vehicle>
	
    
	<vehicle depart="0.00" departPos="random" departSpeed="max" id="135.0" reroute="true">
		
        
		<route edges="313 -116 -13 15 117 319 -319 -38 -17 25 126 -125 125 -126 128 383 -383 381 -210 -25 -9 11 -11 7 333 -333 356 -348 -138 210 349 -349 -381 -128 138 348 -356 -7 3 13 64 -121 -19 17 38 325 -325 -117 -15 -3 9 19 121 326 -313"/>
		
    
		<stop duration="86400" parkingArea="pl-3"/>
	</vehicle>
	
    
	<vehicle depart="0.00" departPos="random" departSpeed="max" id="136.0" reroute="true">
		
        
		<route edges="126 344 -349 -210 -25 19 125 -126 138 -138 210 -381 381 349 365 -365 379 -379 -344 -125 -19 -9 9 25 128 383 -383 -128"/>
		
    
		<stop duration="86400" parkingArea="pl383"/>
	</vehicle>
	
    
	<vehicle depart="0.00" departPos="random" departSpeed="max" id="137.0" reroute="true">
		
        
		<route edges="-13 13 116 -326 -64 -17 19 -19 -9 3 -3 11 -11 7 333 -138 210 -210 138 -333 -7 9 25 126 -125 121 326 -116 38 325 -325 319 -319 313 -313 -38 64 -121 125 344 379 -379 -349 349 -344 -126 128 381 -381 383 -383 -128 -25 17"/>
		
    
		<stop duration="86400" parkingArea="pl-13"/>
	</vehicle>
	
    
	<vehicle depart="0.00" departPos="random" departSpeed="max" id="138.0" reroute="true">
		
        
		<route edges="-126 128 383 -383 381 349 379 -379 -349 -381 -128 210 -210 138 348 -356 333 -138 -25 19 -19 25 126 -125 125 344 365 -365 -344"/>
		
    
		<stop duration="86400" parkingArea="pl344"/>
	</vehicle>
	
    
	<vehicle depart="0.00" departPos="random" departSpeed="max" id="139.0" reroute="true">
		
        
		<route edges="-319 313 -326 -64 64 -121 121 326 -313 -38 -13 15 -15 13 38 325 -325 319"/>
		
    
		<stop duration="86400" parkingArea="pl-13"/>
	</vehicle>
	
    
	<vehicle depart="0.00" departPos="random" departSpeed="max" id="14.0" reroute="true">
		
        
		<route edges="333 -138 210 -381 -128 -25 19 121 326 -326 -64 -17 -9 3 -3 7 -7 9 17 -13 13 38 325 -325 -117 -15 15 117 313 -116 64 -121 123 336 361 -361 -336 338 -338 -123 125 -126 138 -333 356 -348 348 -356"/>
		
    
		<stop duration="86400" parkingArea="pl-356"/>
	</vehicle>
	
    
	<vehicle depart="0.00" departPos="random" departSpeed="max" id="140.0" reroute="true">
		
        
		<route edges="138 348 -356 333 -138 210 -381 383 -383 -128 126 -126 -25 17 64 -121 125 -125 123 -123 -19 19 121 326 -116 -13 -3 11 -11 9 -9 3 15 -15 13 116 -326 -64 38 325 -325 319 -319 -117 119 330 -330 332 -332 -119 117 -38 -17 25 128 381 349 -344 344 379 -379 365 -365 -349 -210"/>
		
    
		<stop duration="86400" parkingArea="pl344"/>
	</vehicle>
	
    
	<vehicle depart="0.00" departPos="random" departSpeed="max" id="141.0" reroute="true">
		
        
		<route edges="123 -123 -19 17 116 -326 -121 121 326 -313 319 -319 313 -116 38 -117 -15 -3 11 -11 9 19 125 344 -349 349 379 -379 365 -365 -344 -125"/>
		
    
		<stop duration="86400" parkingArea="pl344"/>
	</vehicle>
	
    
	<vehicle depart="0.00" departPos="random" departSpeed="max" id="142.0" reroute="true">
		
        
		<route edges="-38 38 319 -319 325 -325 313 -116 116 -326 -121 121 326 -313 -117 -15 13 -13 15 117"/>
		
    
		<stop duration="86400" parkingArea="pl-13"/>
	</vehicle>
	
    
	<vehicle depart="0.00" departPos="random" departSpeed="max" id="143.0" reroute="true">
		
        
		<route edges="333 -333 -7 9 17 -13 15 119 332 -332 -119 -15 -3 11 -11 7 356 -348 -138 126 344 379 -379 -349 -210 138 348 -356"/>
		
    
		<stop duration="86400" parkingArea="pl-356"/>
	</vehicle>
	
    
	<vehicle depart="0.00" departPos="random" departSpeed="max" id="144.0" reroute="true">
		
        
		<route edges="-349 -381 381 349 379 -379 -344 -125 125 344 365 -365"/>
		
    
		<stop duration="86400" parkingArea="pl344"/>
	</vehicle>
	
    
	<vehicle depart="0.00" departPos="random" departSpeed="max" id="145.0" reroute="true">
		
        
		<route edges="-11 3 15 -15 13 64 326 -326 -64 38 313 -116 -13 -3 9 25 -25 -9 7 333 -333 356 -348 -138 128 383 -383 -128 126 344 -349 -210 138 348 -356 -7 11"/>
		
    
		<stop duration="86400" parkingArea="pl-356"/>
	</vehicle>
	
    
	<vehicle depart="0.00" departPos="random" departSpeed="max" id="146.0" reroute="true">
		
        
		<route edges="123 336 361 -361 -336 -123 121 -121 125 -126 126 344 -349 -210 138 348 -356 -7 3 -3 11 -11 9 25 128 383 -383 381 349 -344 -125 -19 -9 7 356 -348 -333 333 -138 210 -381 -128 -25 19"/>
		
    
		<stop duration="86400" parkingArea="pl-138"/>
	</vehicle>
	
    
	<vehicle depart="0.00" departPos="random" departSpeed="max" id="147.0" reroute="true">
		
        
		<route edges="17 64 326 -313 325 -325 -117 119 330 -330 -119 -15 15 117 319 -319 313 -326 -64 116 -116 -17 25 126 344 379 -379 -344 -125 121 -121 125 -126 128 -128 -25 19 -19 -9 9"/>
		
    
		<stop duration="86400" parkingArea="pl344"/>
	</vehicle>
	
    
	<vehicle depart="0.00" departPos="random" departSpeed="max" id="148.0" reroute="true">
		
        
		<route edges="-356 -7 9 19 121 -121 125 344 379 -379 -349 -210 -25 -9 3 13 -13 15 117 325 -325 313 -313 319 -319 -38 64 -64 116 -326 326 -116 -17 25 128 383 -383 381 -381 -128 126 -125 -19 17 38 -117 119 332 -332 -119 -15 -3 11 -11 7 333 -138 210 349 365 -365 -344 -126 138 348"/>
		
    
		<stop duration="86400" parkingArea="pl-356"/>
	</vehicle>
	
    
	<vehicle depart="0.00" departPos="random" departSpeed="max" id="149.0" reroute="true">
		
        
		<route edges="-123 121 326 -326 -64 64 -121 125 -126 138 -333 333 348 -356 356 -348 -138 126 -125 123 336 361 -361 -336 338 -338"/>
		
    
		<stop duration="86400" parkingArea="pl338"/>
	</vehicle>
	
    
	<vehicle depart="0.00" departPos="random" departSpeed="max" id="15.0" reroute="true">
		
        
		<route edges="3 13 -13 -3 9 19 125 -126 -25 -9 7 333 -138 126 -125 123 336 361 -361 -336 338 -338 -123 121 -64 38 -38 -17 17 64 -121 -19 25 128 383 -383 381 349 379 -379 -344 344 -349 -210 138 348 -356 356 -348 -333 -7 11 -11"/>
		
    
		<stop duration="86400" parkingArea="pl-356"/>
	</vehicle>
	
    
	<vehicle depart="0.00" departPos="random" departSpeed="max" id="150.0" reroute="true">
		
        
		<route edges="349 365 -365 379 -379 -344 -126 210 -381 -128 126 344 -349 -210 -25 19 121 -64 116 -313 325 -325 -38 -17 25 138 348 -356 -7 7 333 -138 128 383 -383 381"/>
		
    
		<stop duration="86400" parkingArea="pl383"/>
	</vehicle>
	
    
	<vehicle depart="0.00" departPos="random" departSpeed="max" id="151.0" reroute="true">
		
        
		<route edges="326 -313 319 -319 -117 -15 -3 7 356 -348 348 -356 -7 9 17 116 -326 -121 125 -126 126 344 365 -365 -344 -125 123 338 -338 -123 -19 25 138 -333 333 -138 -25 19 121 -64 38 325 -325 313 -116 -13 15 117 -38 -17 -9 3 13 64"/>
		
    
		<stop duration="86400" parkingArea="pl-13"/>
	</vehicle>
	
    
	<vehicle depart="0.00" departPos="random" departSpeed="max" id="152.0" reroute="true">
		
        
		<route edges="-138 -25 17 -17 -9 11 -11 9 19 125 -125 121 326 -313 -117 -15 -3 7 -7 3 13 38 -38 116 -116 64 -64 -13 15 117 319 -319 313 -326 -121 123 336 361 -361 -336 338 -338 -123 -19 25 128 383 -383 381 349 379 -379 -344 344 365 -365 -349 -210 210 -381 -128 126 -126 138 348 -356 356 -348 -333 333"/>
		
    
		<stop duration="86400" parkingArea="pl-138"/>
	</vehicle>
	
    
	<vehicle depart="0.00" departPos="random" departSpeed="max" id="153.0" reroute="true">
		
        
		<route edges="-326 -64 38 -38 -13 -3 3 13 -17 -9 11 -11 9 25 128 383 -383 381 -381 -128 126 344 365 -365 379 -379 -344 -126 138 -138 -25 17 116 -116 64 -121 121 326 -313 319 -319 325 -325 313"/>
		
    
		<stop duration="86400" parkingArea="pl-138"/>
	</vehicle>
	
    
	<vehicle depart="0.00" departPos="random" departSpeed="max" id="154.0" reroute="true">
		
        
		<route edges="3 13 38 319 -319 -117 -15 -3 11 -11 9 25 126 -126 128 381 349 365 -365 -344 344 -349 -381 383 -383 -128 -25 -9 7 356 -348 -138 138 348 -356 -7"/>
		
    
		<stop duration="86400" parkingArea="pl-356"/>
	</vehicle>
	
    
	<vehicle depart="0.00" departPos="random" departSpeed="max" id="155.0" reroute="true">
		
        
		<route edges="349 379 -379 -349 -210 -25 19 121 326 -326 -64 116 -116 64 -121 -19 17 38 -117 -15 13 -13 -3 11 -11 7 333 -138 138 348 -356 -7 3 15 117 319 -319 -38 -17 25 128 383 -383 381 -381 -128 126 -126 210"/>
		
    
		<stop duration="86400" parkingArea="pl383"/>
	</vehicle>
	
    
	<vehicle depart="0.00" departPos="random" departSpeed="max" id="156.0" reroute="true">
		
        
		<route edges="-3 11 -11 3 13 64 -64 116 -326 -121 123 336 361 -361 -336 338 -338 -123 121 326 -116 -13 15 117 313 -313 319 -319 -117 119 330 -330 332 -332 -119 -15"/>
		
    
		<stop duration="86400" parkingArea="pl-3"/>
	</vehicle>
	
    
	<vehicle depart="0.00" departPos="random" departSpeed="max" id="157.0" reroute="true">
		
        
		<route edges="25 210 -210 126 344 379 -379 -344 -125 123 336 361 -361 -336 -123 121 326 -313 -38 -13 -3 9 -9 3 13 -17 19 125 -126 128 -128 138 -138 -25 17 64 -121 -19"/>
		
    
		<stop duration="86400" parkingArea="pl-138"/>
	</vehicle>
	
    
	<vehicle depart="0.00" departPos="random" departSpeed="max" id="158.0" reroute="true">
		
        
		<route edges="-348 -333 333 -138 126 -125 125 -126 138 348 -356 -7 3 13 116 -116 -13 -3 7 356"/>
		
    
		<stop duration="86400" parkingArea="pl-3"/>
	</vehicle>
	
    
	<vehicle depart="0.00" departPos="random" departSpeed="max" id="159.0" reroute="true">
		
        
		<route edges="-138 138 348 -356 333 -333 -7 7 356 -348"/>
		
    
		<stop duration="86400" parkingArea="pl-138"/>
	</vehicle>
	
    
	<vehicle depart="0.00" departPos="random" departSpeed="max" id="16.0" reroute="true">
		
        
		<route edges="-64 -13 15 119 330 -330 -119 -15 13 -17 17 116 -326 -121 121 326 -313 -117 117 325 -325 319 -319 313 -116 64"/>
		
    
		<stop duration="86400" parkingArea="pl330"/>
	</vehicle>
	
    
	<vehicle depart="0.00" departPos="random" departSpeed="max" id="160.0" reroute="true">
		
        
		<route edges="336 361 -361 -336 338 -338 -123 121 -64 38 -38 116 -326 -121 -19 25 -25 19 123"/>
		
    
		<stop duration="86400" parkingArea="pl336"/>
	</vehicle>
	
    
	<vehicle depart="0.00" departPos="random" departSpeed="max" id="161.0" reroute="true">
		
        
		<route edges="313 -116 -13 -3 7 333 -333 356 -348 348 -356 -7 9 17 -17 -9 11 -11 3 13 64 -64 38 -38 116 -326 -121 125 -126 126 344 379 -379 -349 349 -344 -125 121 326 -313 319 -319 -117 119 -119 -15 15 117 325 -325"/>
		
    
		<stop duration="86400" parkingArea="pl344"/>
	</vehicle>
	
    
	<vehicle depart="0.00" departPos="random" departSpeed="max" id="162.0" reroute="true">
		
        
		<route edges="-116 64 -121 121 326 -326 -64 38 319 -319 -117 -15 15 119 -119 117 313 -313 325 -325 -38 -17 -9 9 19 125 344 -349 -210 210 349 -344 -126 138 348 -356 -7 7 333 -138 -25 17 116"/>
		
    
		<stop duration="86400" parkingArea="pl-138"/>
	</vehicle>
	
    
	<vehicle depart="0.00" departPos="random" departSpeed="max" id="163.0" reroute="true">
		
        
		<route edges="-332 330 -330 332"/>
		
    
		<stop duration="86400" parkingArea="pl330"/>
	</vehicle>
	
    
	<vehicle depart="0.00" departPos="random" departSpeed="max" id="164.0" reroute="true">
		
        
		<route edges="3 13 64 -121 121 326 -116 116 -326 -64 -13 15 119 332 -332 -119 -15 -3 7 356 -348 -333 333 -138 210 -381 -128 138 348 -356 -7 11 -11 9 17 38 325 -325 -38 -17 -9"/>
		
    
		<stop duration="86400" parkingArea="pl-356"/>
	</vehicle>
	
    
	<vehicle depart="0.00" departPos="random" departSpeed="max" id="165.0" reroute="true">
		
        
		<route edges="313 -116 38 -38 -17 17 64 -64 116 -326 -121 123 336 361 -361 -336 338 -338 -123 -19 25 128 383 -383 381 349 365 -365 379 -379 -344 -125 121 326 -313 319 -319 325 -325 -117 -15 13 -13 15 117"/>
		
    
		<stop duration="86400" parkingArea="pl-13"/>
	</vehicle>
	
    
	<vehicle depart="0.00" departPos="random" departSpeed="max" id="166.0" reroute="true">
		
        
		<route edges="25 126 -126 -25 -9 9 19 123 338 -338 336 361 -361 -336 -123 121 326 -313 313 -116 -13 15 119 332 -332 330 -330 -119 -15 -3 3 13 64 -121 -19 17 116 -326 -64 38 325 -325 -117 117 -38 -17"/>
		
    
		<stop duration="86400" parkingArea="pl-3"/>
	</vehicle>
	
    
	<vehicle depart="0.00" departPos="random" departSpeed="max" id="167.0" reroute="true">
		
        
		<route edges="344 -349 -381 -128 210 -210 -25 17 64 -121 121 326 -313 -38 -17 25 128 383 -383 381 349 365 -365 379 -379 -344 -126 138 348 -356 333 -333 356 -348 -138 126 -125 123 336 361 -361 -336 -123 -19 19 125"/>
		
    
		<stop duration="86400" parkingArea="pl344"/>
	</vehicle>
	
    
	<vehicle depart="0.00" departPos="random" departSpeed="max" id="168.0" reroute="true">
		
        
		<route edges="-25 17 38 325 -325 -117 117 313 -326 326 -313 319 -319 -38 -17 -9 3 13 64 -121 125 -125 123 336 361 -361 -336 -123 -19 19 121 -64 -13 -3 9 25 128 383 -383 -128 210 -381 381 349 379 -379 365 -365 -344 344 -349 -210 126 -126 138 -138"/>
		
    
		<stop duration="86400" parkingArea="pl-138"/>
	</vehicle>
	
    
	<vehicle depart="0.00" departPos="random" departSpeed="max" id="169.0" reroute="true">
		
        
		<route edges="-365 -344 344 365"/>
		
    
		<stop duration="86400" parkingArea="pl344"/>
	</vehicle>
	
    
	<vehicle depart="0.00" departPos="random" departSpeed="max" id="17.0" reroute="true">
		
        
		<route edges="-338 338"/>
		
    
		<stop duration="86400" parkingArea="pl338"/>
	</vehicle>
	
    
	<vehicle depart="0.00" departPos="random" departSpeed="max" id="170.0" reroute="true">
		
        
		<route edges="3 15 -15 -3 7 -7 11 -11 9 25 -25 17 38 325 -325 319 -319 -117 119 330 -330 332 -332 -119 117 313 -116 -13 13 116 -313 -38 64 -121 121 -64 -17 -9"/>
		
    
		<stop duration="86400" parkingArea="pl-13"/>
	</vehicle>
	
    
	<vehicle depart="0.00" departPos="random" departSpeed="max" id="171.0" reroute="true">
		
        
		<route edges="-116 -13 13 116 -326 -64 38 313 -313 325 -325 -117 117 -38 64 -121 -19 -9 3 -3 9 25 128 383 -383 381 349 365 -365 -344 -126 126 344 379 -379 -349 -210 -25 17 -17 19 123 336 361 -361 -336 338 -338 -123 121 326"/>
		
    
		<stop duration="86400" parkingArea="pl338"/>
	</vehicle>
	
    
	<vehicle depart="0.00" departPos="random" departSpeed="max" id="172.0" reroute="true">
		
        
		<route edges="-332 -119 -15 15 117 -117 119 332 -356"/>
		
    
		<stop duration="86400" parkingArea="pl-356"/>
	</vehicle>
	
    
	<vehicle depart="0.00" departPos="random" departSpeed="max" id="173.0" reroute="true">
		
        
		<route edges="64 -121 125 -126 126 -125 -19 25 138 -333 356 -348 348 -356 -7 9 -9 3 15 119 330 -330 332 -332 -119 -15 -3 7 333 -138 210 -381 381 349 379 -379 365 -365 -349 -210 128 383 -383 -128 -25 17 116 -326 326 -313 -38 -17 19 123 336 361 -361 -336 338 -338 -123 121 -64 38 313 -116 -13 13"/>
		
    
		<stop duration="86400" parkingArea="pl-13"/>
	</vehicle>
	
    
	<vehicle depart="0.00" departPos="random" departSpeed="max" id="174.0" reroute="true">
		
        
		<route edges="123 336 361 -361 -336 338 -338 -123 -19 -9 11 -11 9 17 116 -326 326 -313 -117 -15 15 119 -119 117 325 -325 313 -116 -13 13 64 -121 125 -126 128 -128 126 -125 121 -64 -17 25 138 348 -356 -7 7 333 -138 -25 19"/>
		
    
		<stop duration="86400" parkingArea="pl-138"/>
	</vehicle>
	
    
	<vehicle depart="0.00" departPos="random" departSpeed="max" id="175.0" reroute="true">
		
        